148
   19.762626    0.000000    0.000000   -4.940657    8.557468    0.000000    0.000000    0.000000   10.897224
Si       2.313215     0.000000     1.816202
Si      -1.131347     1.988719     3.632406
Si       1.338981     2.290015     5.448610
O        1.454968     1.161719     1.135769
O        3.232355     0.664596     2.951973
O        2.774183     2.452420     4.768177
O       -1.015360     3.117015     2.496635
O        0.762027     3.614138     0.680431
O        0.303854     1.826315     4.312839
Si       7.253872     0.000000     1.816202
Si       3.809309     1.988719     3.632406
Si       6.279638     2.290015     5.448610
O        6.395625     1.161719     1.135769
O        8.173012     0.664596     2.951973
O        7.714839     2.452420     4.768177
O        3.925296     3.117015     2.496635
O        5.702683     3.614138     0.680431
O        5.244511     1.826315     4.312839
Si      -0.157113     4.278734     1.816202
Si      -3.601676     6.267453     3.632406
Si      -1.131347     6.568749     5.448610
O       -1.015360     5.440453     1.135769
O        0.762027     4.943330     2.951973
O        0.303854     6.731154     4.768177
O       -3.485689     7.395749     2.496635
O       -1.708302     7.892873     0.680431
O       -2.166474     6.105049     4.312839
Si       4.783544     4.278734     1.816202
Si       1.338981     6.267453     3.632406
Si       3.809309     6.568749     5.448610
O        3.925296     5.440453     1.135769
O        5.702683     4.943330     2.951973
O        5.244511     6.731154     4.768177
O        1.454968     7.395749     2.496635
O        3.232355     7.892873     0.680431
O        2.774183     6.105049     4.312839
Cl       2.926907     4.265904     3.405595
Si      12.194528     0.000000     1.816202
Si       8.749966     1.988719     3.632406
Si      11.220294     2.290015     5.448610
O       11.336281     1.161719     1.135769
O       13.113668     0.664596     2.951973
O       12.655496     2.452420     4.768177
O        8.865953     3.117015     2.496635
O       10.643340     3.614138     0.680431
O       10.185167     1.826315     4.312839
Si      17.135185     0.000000     1.816202
Si      13.690622     1.988719     3.632406
Si      16.160951     2.290015     5.448610
O       16.276938     1.161719     1.135769
O       18.054325     0.664596     2.951973
O       17.596152     2.452420     4.768177
O       13.806609     3.117015     2.496635
O       15.583996     3.614138     0.680431
O       15.125824     1.826315     4.312839
Si       9.724200     4.278734     1.816202
Si       6.279637     6.267453     3.632406
Si       8.749966     6.568749     5.448610
O        8.865953     5.440453     1.135769
O       10.643340     4.943330     2.951973
O       10.185167     6.731154     4.768177
O        6.395624     7.395749     2.496635
O        8.173011     7.892873     0.680431
O        7.714839     6.105049     4.312839
Si      14.664857     4.278734     1.816202
Si      11.220294     6.267453     3.632406
Si      13.690622     6.568749     5.448610
O       13.806609     5.440453     1.135769
O       15.583996     4.943330     2.951973
O       15.125824     6.731154     4.768177
O       11.336281     7.395749     2.496635
O       13.113668     7.892873     0.680431
O       12.655496     6.105049     4.312839
Cl      12.808220     4.265904     3.405595
Si       2.313215     0.000000     7.264814
Si      -1.131347     1.988719     9.081018
Si       1.338981     2.290015    10.897222
O        1.454968     1.161719     6.584381
O        3.232355     0.664596     8.400585
O        2.774183     2.452420    10.216789
O       -1.015360     3.117015     7.945247
O        0.762027     3.614138     6.129043
O        0.303854     1.826315     9.761451
Si       7.253872     0.000000     7.264814
Si       3.809309     1.988719     9.081018
Si       6.279638     2.290015    10.897222
O        6.395625     1.161719     6.584381
O        8.173012     0.664596     8.400585
O        7.714839     2.452420    10.216789
O        3.925296     3.117015     7.945247
O        5.702683     3.614138     6.129043
O        5.244511     1.826315     9.761451
Si      -0.157113     4.278734     7.264814
Si      -3.601676     6.267453     9.081018
Si      -1.131347     6.568749    10.897222
O       -1.015360     5.440453     6.584381
O        0.762027     4.943330     8.400585
O        0.303854     6.731154    10.216789
O       -3.485689     7.395749     7.945247
O       -1.708302     7.892873     6.129043
O       -2.166474     6.105049     9.761451
Si       4.783544     4.278734     7.264814
Si       1.338981     6.267453     9.081018
Si       3.809309     6.568749    10.897222
O        3.925296     5.440453     6.584381
O        5.702683     4.943330     8.400585
O        5.244511     6.731154    10.216789
O        1.454968     7.395749     7.945247
O        3.232355     7.892873     6.129043
O        2.774183     6.105049     9.761451
Cl       2.926907     4.265904     8.854207
Si      12.194528     0.000000     7.264814
Si       8.749966     1.988719     9.081018
Si      11.220294     2.290015    10.897222
O       11.336281     1.161719     6.584381
O       13.113668     0.664596     8.400585
O       12.655496     2.452420    10.216789
O        8.865953     3.117015     7.945247
O       10.643340     3.614138     6.129043
O       10.185167     1.826315     9.761451
Si      17.135185     0.000000     7.264814
Si      13.690622     1.988719     9.081018
Si      16.160951     2.290015    10.897222
O       16.276938     1.161719     6.584381
O       18.054325     0.664596     8.400585
O       17.596152     2.452420    10.216789
O       13.806609     3.117015     7.945247
O       15.583996     3.614138     6.129043
O       15.125824     1.826315     9.761451
Si       9.724200     4.278734     7.264814
Si       6.279637     6.267453     9.081018
Si       8.749966     6.568749    10.897222
O        8.865953     5.440453     6.584381
O       10.643340     4.943330     8.400585
O       10.185167     6.731154    10.216789
O        6.395624     7.395749     7.945247
O        8.173011     7.892873     6.129043
O        7.714839     6.105049     9.761451
Si      14.664857     4.278734     7.264814
Si      11.220294     6.267453     9.081018
Si      13.690622     6.568749    10.897222
O       13.806609     5.440453     6.584381
O       15.583996     4.943330     8.400585
O       15.125824     6.731154    10.216789
O       11.336281     7.395749     7.945247
O       13.113668     7.892873     6.129043
O       12.655496     6.105049     9.761451
Cl      12.808220     4.265904     8.854207
