     180
SCF Done           -1282.60283883
C             6.488567562         0.651731664        -0.460671613
C             6.497036030        -0.809810661        -0.177866121
C             6.215255089        -1.523500426        -1.451649116
C             6.038156060        -0.500658529        -2.521278523
C             6.218207910         0.844796440        -1.908869288
C             3.098668253         5.635330970         1.350917212
C             4.203815696         5.012386603         0.570899719
C             3.916417799         5.203551876        -0.877813584
C             2.628195624         5.939165906        -0.993149488
C             2.123403222         6.205686190         0.382657106
C             3.694253062        -0.192162669         5.419839976
C             4.795142939         0.088934961         4.460399449
C             4.788959236         1.549247452         4.171503453
C             3.697503801         2.175872840         4.961210114
C             3.012289535         1.097304746         5.726117749
C             2.600678461        -5.893465943         1.290155930
C             3.892670118        -5.173696590         1.125336723
C             4.184809886        -4.461539435         2.399958811
C             3.075507584        -4.742266138         3.352858187
C             2.096097673        -5.627151233         2.665598886
C             1.331155191        -3.594930086        -5.333556990
C             2.731368845        -3.502831138        -4.837693967
C             2.908610058        -4.524345199        -3.768953666
C             1.618183493        -5.247421555        -3.604266085
C             0.643252990        -4.672642045        -4.571027046
C             1.638700932         3.523726339        -5.297892342
C             2.925773957         2.785277498        -5.181192649
C             2.743094960         1.439964732        -5.792764221
C             1.342653263         1.347418369        -6.287838734
C             0.660302805         2.634676419        -5.981717473
C            -6.519812478        -0.653740161         0.458355576
C            -6.229088730        -0.843786848         1.905756204
C            -6.045900409         0.500280771         2.518408751
C            -6.223402725         1.520901472         1.449503705
C            -6.516432751         0.807665214         0.176386327
C            -2.132763135        -6.200698729        -0.386953293
C            -2.637310934        -5.934489011         0.988121643
C            -3.923916836        -5.195570739         0.870817799
C            -4.214388653        -5.005202105        -0.576629454
C            -3.107618353        -5.626575739        -1.354029001
C            -0.667792812        -2.635970507         5.978958599
C            -1.349450203        -1.347965326         6.284855016
C            -2.749584861        -1.440074060         5.788654398
C            -2.932983106        -2.784363100         5.175955719
C            -1.646512469        -3.523753484         5.293790254
C            -0.651774014         4.674373350         4.569382283
C            -1.626640775         5.247999891         3.601869756
C            -2.916113156         4.523184989         3.766137531
C            -2.738322172         3.502418732         4.835147837
C            -1.338529765         3.595326104         5.331832763
C            -2.104826883         5.622026159        -2.667971671
C            -3.083162053         4.733993351        -3.352977592
C            -4.192003696         4.451378304        -2.401047932
C            -3.899421143         5.165002133        -1.127966998
C            -2.609350300         5.888459368        -1.292840943
C            -3.019932128        -1.097843371        -5.729872928
C            -3.707604990        -2.175494517        -4.967324516
C            -4.814619997        -1.554414813        -4.189981635
C            -4.811193733        -0.092972521        -4.471972583
C            -3.702059842         0.189290760        -5.423664662
C             5.577100000         1.083500000         1.836000000
C             4.510148233         3.301133081         2.390376667
C             5.371261318         2.846414387         0.043420718
C             5.065143945         2.020774080         2.830518351
C             5.919006893         1.569850402         0.503312246
C             4.807002940         3.778512155         1.031289759
C             5.629634700        -0.360881346         2.135271734
C             4.514461070        -2.202442726         3.459623400
C             5.376299181        -2.657537780         1.110977755
C             5.095800325        -0.858293214         3.403797219
C             5.952338541        -1.310576962         1.069853506
C             4.802672579        -3.151155087         2.372727034
C             5.087371002        -3.369725695        -0.160690388
C             3.416254113        -4.879029548        -1.329239910
C             4.587860604        -3.038226832        -2.628582669
C             4.226243836        -4.558814873        -0.146670313
C             5.395467802        -2.720648817        -1.444528122
C             3.728678859        -4.229303333        -2.610098733
C             4.409776886        -2.016453317        -3.695979124
C             2.748356697        -1.037611344        -5.346751596
C             4.416512504         0.477484599        -4.178900943
C             3.377766047        -2.209464097        -4.722466969
C             5.042343471        -0.697766455        -3.555903343
C             3.384025460         0.279317461        -5.203899087
C             5.098733507         3.044456807        -1.401045113
C             3.437926479         4.021124808        -3.048872150
C             4.600648087         1.822652107        -3.569434605
C             4.246862681         4.159264310        -1.831378946
C             5.406362769         1.964443660        -2.351391949
C             3.746183646         2.939334202        -3.995878316
C             3.419923081         3.930892323         3.174417571
C             1.530542044         3.443694874         4.797914801
C             1.227498751         5.188190852         2.975476836
C             2.930889933         3.271502279         4.395241295
C             2.629553346         5.013201618         2.576460231
C             0.740848277         4.526135116         4.194909776
C             0.261591602         5.811675643        -1.835768360
C            -0.237516047         4.595839939        -4.007435538
C             2.150763340         4.756547958        -3.164005521
C            -0.683511814         5.453128295        -2.900812994
C             1.699379594         5.612850898        -2.057853283
C             1.201415670         4.398060680        -4.225781321
C             0.253175329         5.758501124         2.007839815
C            -2.133953306         5.597339522         1.161441808
C            -0.242530815         6.077897323        -0.461765995
C            -1.186244531         5.658922425         2.281889422
C             0.701839851         6.139554581         0.660959317
C            -1.680758420         5.979815486        -0.182736396
C             3.409532482        -2.483770470         4.412588646
C             1.207659638        -3.713063057         4.691109194
C             1.520154393        -1.418367854         5.733710569
C             2.610780093        -3.705890863         4.256888708
C             2.922036979        -1.414542966         5.297744326
C             0.725300768        -2.643574341         5.576557489
C             0.838669682        -0.130669532         6.038097143
C            -1.355841046         1.129695254         5.839681152
C             0.844023916         2.363954664         5.558075696
C            -0.622399862        -0.097114861         6.180601502
C             1.573598240         1.134039616         5.898759338
C            -0.616978519         2.392137102         5.701173287
C             2.126146185        -5.599596728        -1.164418220
C            -0.261868966        -5.754304682        -2.009870884
C             0.233664667        -6.078394856         0.458486826
C             1.177723408        -5.657948273        -2.284419966
C             1.672225000        -5.982158469         0.179760885
C            -0.710839660        -6.136967929        -0.664466684
C            -0.270384944        -5.812506551         1.832352602
C            -2.158166254        -4.753640467         3.158380495
C             0.229550913        -4.598562296         4.005254410
C            -1.708080951        -5.610916269         2.053528008
C             0.674974195        -5.455922369         2.898079747
C            -1.209343707        -4.397970308         4.221768214
C             1.349500683        -1.129869778        -5.842109382
C            -0.845398713         0.129561627        -6.041265934
C            -0.851233409        -2.362897773        -5.560221835
C             0.616023007         0.096478550        -6.183309531
C             0.610223400        -2.391713252        -5.703012696
C            -1.580403351        -1.134520746        -5.902284677
C            -1.235783742        -5.180465347        -2.975859431
C            -3.429989258        -3.920663642        -3.175701901
C            -1.538330795        -3.439469781        -4.798309313
C            -2.637733989        -5.002228463        -2.576008311
C            -0.749311300        -4.521786338        -4.195473370
C            -2.939718064        -3.264616678        -4.395043787
C            -1.214887655         3.708237225        -4.691330667
C            -3.414903518         2.474418031        -4.409663825
C            -1.526955004         1.415490415        -5.735297465
C            -2.617259872         3.697845228        -4.254787787
C            -0.732536082         2.640792569        -5.577948001
C            -2.928743092         1.409632536        -5.297053800
C            -5.395598261        -2.845658836        -0.054588192
C            -4.535737890        -3.300061635        -2.399119037
C            -5.698731792        -1.105355741        -1.877121684
C            -4.825358592        -3.774122843        -1.039406694
C            -5.986131251        -1.583486390        -0.518373666
C            -5.127796574        -2.036986382        -2.858613381
C            -5.105317597        -3.035671231         1.391366454
C            -3.443432435        -4.015146097         3.040928409
C            -4.605920989        -1.819648638         3.562650981
C            -4.251149630        -4.150270824         1.821569453
C            -5.411534479        -1.959203928         2.342509426
C            -3.752276722        -2.936337989         3.988965874
C            -4.422867044        -0.476807611         4.174782981
C            -2.754556975         1.037370523         5.343974569
C            -4.416707237         2.015521752         3.693636066
C            -3.390061654        -0.279275153         5.200178354
C            -5.049393414         0.697496208         3.553464080
C            -3.384196147         2.208893443         4.719956892
C            -4.594079696         3.035128945         2.625684864
C            -3.422448322         4.873956053         1.325939567
C            -5.090213816         3.359090670         0.157596775
C            -3.735285519         4.226353150         2.606909841
C            -5.400255193         2.714793825         1.440645861
C            -4.230603582         4.549744910         0.143115762
C            -5.382755407         2.646426544        -1.114199676
C            -4.522752988         2.192257973        -3.458795325
C            -5.695352381         0.354560631        -2.158813853
C            -4.809018140         3.139354697        -2.373245248
C            -5.979486554         1.305056709        -1.075731600
C            -5.120989428         0.851644441        -3.415960977
