      20
SCF Done            -115.58776288
C             1.888287176        -0.784576197        -0.877665063
C             2.101476146         0.644616649        -0.369764126
C             0.673400917        -0.780625130        -1.809100851
C             0.136096344         0.651564804        -1.873867478
C             1.018616025         1.533654841        -0.986661132
C            -0.408933810        -1.664401590        -1.179103351
C            -1.614226287        -0.777654734        -0.855052453
C            -1.269400000         0.649000000        -1.276700000
C             0.138310661        -2.213513117         0.140948497
C            -0.730051407        -1.667456812         1.278390769
C            -1.815065212        -0.780177203         0.662747364
C             1.557441163        -1.669951399         0.326724938
C             1.566280033        -0.788591259         1.578304447
C             0.152965646        -0.786768290         2.166406658
C             1.902249738         0.641603235         1.148196138
C             0.696444693         1.528149351         1.470645798
C            -0.385106344         0.645012809         2.100187134
C            -1.601721766         0.650051234         1.171016325
C            -1.269213001         1.535272254        -0.033093550
C             0.149624744         2.080106818         0.151605329
