     240
SCF Done           -1723.97510108
C            -6.332034648         3.923351713        -1.784628798
C            -7.024548633         2.627264007        -1.556569899
C            -7.246726062         2.475902811        -0.093929398
C            -6.691385625         3.678474838         0.582114341
C            -6.126071212         4.573053687        -0.462888978
C            -0.451039216         3.191845816        -6.954996237
C            -1.917712473         3.165287283        -6.711959650
C            -2.268990090         4.351503102        -5.886662828
C            -1.019309010         5.111499107        -5.619176902
C             0.104224334         4.394434000        -6.279137438
C            -4.404534554        -4.044170769        -4.792951797
C            -5.528110957        -3.327486729        -4.133213380
C            -5.657168263        -1.989999193        -4.770199034
C            -4.613438809        -1.880017139        -5.823653849
C            -3.839250972        -3.149555807        -5.837729245
C            -5.286030412        -4.136633315         3.685592683
C            -6.060252330        -2.866814419         3.699771175
C            -6.744509704        -2.731478436         2.386363829
C            -6.393267355        -3.917550054         1.560701654
C            -5.491993462        -4.786125601         2.363657767
C            -1.872572085         3.043285744         6.764653799
C            -2.774469620         3.911950433         5.962214221
C            -4.024857962         3.152504255         5.694452311
C            -3.896079826         1.814821027         6.331873791
C            -2.565939564         1.747347356         6.993584052
C             1.113181387         7.577909389         0.186445680
C            -0.217054134         7.642723576        -0.474288340
C            -1.260432998         7.531604778         0.580092465
C            -0.575626356         7.397222503         1.893155650
C             0.891245140         7.424679651         1.649557925
C             6.329402344        -3.931278623         1.765495205
C             6.123333941        -4.578916848         0.443423650
C             6.689684356        -3.684264155        -0.603596529
C             7.244625475        -2.481026905         0.068780683
C             7.011490177        -2.631106420         1.531186742
C            -0.109645155        -4.400948357         6.264138753
C             1.013958004        -5.119201555         5.604859782
C             2.264636936        -4.362133932         5.874550496
C             1.912896820        -3.174636780         6.699648591
C             0.445861213        -3.199159408         6.941399276
C            -0.894824933        -7.424607456        -1.667927659
C             0.572079787        -7.398660009        -1.910485863
C             1.256524948        -7.533908082        -0.597343104
C             0.212623026        -7.644443045         0.456551643
C            -1.117170335        -7.576800536        -0.205313840
C             2.563186898        -1.751426422        -7.011637118
C             3.893568569        -1.818992574        -6.351569092
C             4.022515960        -3.156769379        -5.713754689
C             2.772376462        -3.916266796        -5.980366954
C             1.870590058        -3.047298634        -6.782065204
C             5.490806053         4.788821233        -2.389872937
C             6.390853805         3.918173570        -1.589010667
C             6.746148536         2.731006779        -2.415876829
C             6.059230473         2.866146264        -3.726359503
C             5.282724524         4.135630151        -3.709409355
C             3.837829641         3.142001263         5.813118403
C             4.607843297         1.869565492         5.793466422
C             5.631517478         1.973371153         4.721980467
C             5.514192319         3.313831207         4.093913960
C             4.401917651         4.036527087         4.764704358
C             6.276835671         2.341685122         1.904807228
C             6.343300000         1.011800000         2.510900000
C             6.743223463        -0.140112415         1.724781944
C             7.017145621         0.012754755         0.291063507
C             6.904528236         1.331561885        -0.334468645
C             6.537998089         2.504470123         0.482424201
C             5.891462513         0.357146354        -3.889196297
C             6.576922198         0.222572190        -2.591850409
C             6.703687535        -1.095877860        -1.963769616
C             6.145336793        -2.287334774        -2.628479106
C             5.467844895        -2.153195136        -3.916326153
C             5.340402597        -0.825678819        -4.549580657
C             3.040293272        -5.119054919        -3.785899486
C             4.279221353        -4.365143544        -3.520612839
C             4.952184887        -4.497520297        -2.229912758
C             4.390918756        -5.384377020        -1.192114903
C             3.162624125        -6.131671287        -1.455263401
C             2.484392963        -5.998775366        -2.757625376
C             1.749069442        -6.503757238         2.090221232
C             2.784401351        -6.393833896         1.044567356
C             4.014388817        -5.649282618         1.308423259
C             4.221445006        -5.010701080         2.621754466
C             3.193664612        -5.118595617         3.659128648
C             1.952326601        -5.867813433         3.391320018
C             3.791454270        -1.886790699         5.632517509
C             4.142143680        -3.065595559         4.815338436
C             5.167112666        -2.957097187         3.776072466
C             5.837300855        -1.669140271         3.538285768
C             5.481868311        -0.502901371         4.341832333
C             4.467209147        -0.613214247         5.401481894
C            -4.475534201         0.599875371        -5.419229590
C            -5.510589589         0.490846210        -4.374692320
C            -5.856023330         1.657041497        -3.563128293
C            -5.169325496         2.942225130        -3.789293263
C            -4.142998823         3.050302591        -4.825121408
C            -3.794615035         1.874114357        -5.643464580
C            -1.955276311         5.858867328        -3.405559154
C            -3.194557958         5.105320518        -3.671043328
C            -4.220815558         4.997081159        -2.634873473
C            -4.016383060         5.641292847        -1.324200862
C            -2.787463713         6.388312795        -1.060764175
C            -1.752497550         6.497749080        -2.106032978
C            -2.487793451         5.996984204         2.741019543
C            -3.166896782         6.130396559         1.438733087
C            -4.395836971         5.383050149         1.175163510
C            -4.956307733         4.495705239         2.211595842
C            -4.282888687         4.363019695         3.502832452
C            -3.043246911         5.116718725         3.768730376
C            -5.338883985         0.821415902         4.524727632
C            -5.466613313         2.148068905         3.892615673
C            -6.139924489         2.280913213         2.601301402
C            -6.690903534         1.088369932         1.930837950
C            -6.564152933        -0.226940163         2.557398267
C            -5.885436653        -0.361027914         3.859913015
C            -6.567252987        -2.512838146        -0.520026917
C            -6.915628370        -1.336676386         0.298678183
C            -7.042488274        -0.021507637        -0.327738251
C            -6.822077989         0.128677248        -1.778132040
C            -6.476649874        -1.037512201        -2.589814273
C            -6.348697816        -2.363823514        -1.958123244
C             1.566748673         4.163803805         5.452556886
C             2.126897967         5.052697767         4.415501955
C             1.239914383         5.907566530         3.627957006
C            -0.214700880         5.881769988         3.870199046
C            -0.770092359         5.001166701         4.898201630
C             0.124542584         4.138798348         5.692906672
C             2.554292379         0.616980631         6.533456932
C             1.787059440         1.877630746         6.544535057
C             0.344785124         1.852712423         6.783548300
C            -0.342998676         0.567352108         7.011755250
C             0.417748091        -0.682291276         6.999610047
C             1.872443642        -0.657545521         6.759590146
C            -2.269918899        -3.171133169         5.869476678
C            -1.718894647        -1.978942932         6.540813196
C            -2.479781182        -0.729724361         6.554140111
C            -3.798635503        -0.662634561         5.897250038
C            -4.345154812        -1.845017834         5.232196568
C            -3.577370248        -3.104480673         5.218128555
C            -0.555309179        -5.909061296         3.803510004
C            -1.669766175        -5.197587027         4.457803115
C            -2.977238583        -5.131140165         3.806817136
C            -3.181659057        -5.775370086         2.495982580
C            -2.076610653        -6.480403410         1.847126384
C            -0.757886517        -6.547371837         2.503594732
C            -3.025205272        -6.097305908        -1.846940610
C            -3.245813282        -6.248222989        -0.396596620
C            -4.350858744        -5.543573657         0.252163950
C            -5.244613273        -4.682211333        -0.544002757
C            -5.025944397        -4.532949395        -1.982089608
C            -3.911582758        -5.243499549        -2.636255661
C             0.212676121        -5.884249959        -3.888102328
C            -1.241847039        -5.909632497        -3.647261323
C            -2.128262511        -5.055644975        -4.436246334
C            -1.567762582        -4.168510064        -5.472347131
C            -0.125648235        -4.142874669        -5.710920295
C             0.768445786        -5.004581804        -4.915869895
C             0.340335117        -0.572407690        -7.026283911
C            -0.346356075        -1.857399697        -6.798996221
C            -1.788396219        -1.883295545        -6.560509686
C            -2.556132056        -0.624460254        -6.546656759
C            -1.875292468         0.649784829        -6.771327170
C            -0.420992887         0.676011114        -7.012383776
C             3.795105764         0.658417000        -5.915630242
C             2.476011110         0.725063889        -6.570395980
C             1.714251568         1.973628208        -6.555509398
C             2.264632865         3.165737770        -5.884618415
C             3.572039937         3.099882551        -5.235017847
C             4.341524533         1.841025556        -5.251634263
C             3.179579963         5.778445862        -2.517847193
C             2.973161442         5.129416029        -3.826168168
C             1.665116714         5.193799558        -4.475030478
C             0.550925530         5.905249800        -3.820536588
C             0.754019676         6.545956515        -2.521799273
C             2.073767619         6.482838027        -1.867445108
C             3.910289703         5.248255885         2.612969917
C             5.021531794         4.537508388         1.954862770
C             5.243826179         4.690524204         0.516909310
C             4.352609781         5.553519819        -0.276435399
C             3.245517703         6.255869181         0.374750982
C             3.024054456         6.102049006         1.826229201
C             7.116744280        -1.177710156        -0.557741347
C             6.870092765         1.424915019        -1.796952214
C             6.163305900         3.765491555        -0.167428192
C             5.713555766         3.460642833         2.665968225
C             5.922833281         0.818795195         3.899846531
C             6.639645540        -1.477363651         2.320396150
C             6.018827217        -3.549474984        -1.881033300
C             4.686073191        -3.285322410        -4.432284007
C             4.432395620        -0.647328102        -5.690370316
C             5.514624819         1.692215196        -4.380341372
C             4.901446353        -5.312529780         0.183746612
C             2.471306971        -6.788458517        -0.335984605
C             1.121745714        -6.522142165        -2.925899748
C             2.220440825        -4.783335056        -4.958039064
C             5.311471471        -4.041495776         2.794998907
C             3.281001167        -4.254595553         4.845910494
C             0.813197737        -5.746205758         4.313493729
C             0.412979389        -7.006997939         1.742645337
C             3.931455398         0.607229481         6.023488525
C             2.586025252        -1.911914480         6.472370830
C            -5.311045475         4.027058224        -2.808076814
C            -3.282176845         4.240805110        -4.856266715
C            -2.589399546         1.901647560        -6.483728509
C            -3.935510779        -0.617589059        -6.040286549
C            -5.993854480        -0.834449964        -3.962903411
C            -6.676702330         1.471091587        -2.358271158
C            -4.904863940         5.308427069        -0.201558714
C            -2.475154659         6.785608945         0.319221093
C            -0.417068038         7.003678449        -1.759691630
C            -0.817717584         5.739773714        -4.328732769
C            -6.019719448         3.544166340         1.859422265
C            -4.688217115         3.281498288         4.412274949
C            -2.222539658         4.779760001         4.940529208
C            -1.124599817         6.520257057         2.908856080
C            -7.115048148         1.172518344         0.526142594
C            -6.864290308        -1.427723260         1.764649876
C            -5.514814952        -1.694549152         4.354992899
C            -4.434185687         0.643226266         5.669355435
C            -5.739415083        -3.472069861        -2.706722337
C            -6.171491343        -3.766744481         0.136423072
C            -0.443698420         3.065829202         6.522623175
C             2.408112757         3.115450753         6.047816401
C             3.521827861         4.883847266         3.985100397
C             1.768519313         6.573967474         2.427780323
C            -1.811147458         0.509916355         6.975155831
C            -0.307297101        -1.960121100         6.949616961
C            -3.987889178        -4.198903648         4.326912695
C            -1.402950932        -4.330723815         5.614309942
C            -4.394101938        -5.479804472         1.719869430
C            -2.209575993        -6.873250541         0.437105768
C            -3.523536319        -4.885294092        -4.007742617
C            -1.770984696        -6.573163204        -2.447246192
C            -2.408829601        -3.121083894        -6.068042252
C             0.442293175        -3.069887677        -6.539315265
C             0.302900074         1.953874926        -6.963138247
C             1.807995164        -0.514374331        -6.991317691
C             1.397704092         4.325302536        -5.630023212
C             3.983277610         4.195567065        -4.346187113
C             2.207378519         6.877654290        -0.457584798
C             4.393975469         5.486711717        -1.744511357
