      28
SCF Done            -171.35323905
C            -2.041175837        -0.665189578        -1.115071947
C            -0.790616076        -1.874893049         1.332858407
C            -1.766556595        -0.743156731         1.475712547
C            -2.307110000        -0.086560000         0.241650000
C            -1.540208594         0.481903302        -1.997522296
C            -1.912027188         1.384844305         0.244052313
C            -1.373912812         1.726852653        -1.117054863
C            -1.084648549         0.352565240         2.300275252
C            -0.163063338         0.093030312        -2.542715087
C             0.097023419        -1.328760003        -2.126647706
C             1.385021701        -1.699558399        -1.446845236
C             0.799592578         1.169182379        -2.125022721
C             2.091511489         0.812219508        -1.445786573
C             2.338129391        -0.612693869        -1.036189740
C             0.053434460         2.176031350        -1.246729740
C             1.646544460        -1.773807331         1.020385770
C             1.023489096        -2.486592398        -0.183615117
C             0.531866613        -1.452216343         1.975705066
C             2.499328885        -0.658460020         0.484581875
C            -0.498615775        -2.459993201        -0.021473825
C            -1.064115282        -1.797243886        -1.247359553
C             2.352959686         0.737991746         1.020741002
C             2.193078416         1.671367045        -0.182460049
C            -1.098614889         1.648692812         1.480132383
C             0.327034932         2.098353433         1.334443584
C             0.881331340         2.444170518        -0.020160068
C             1.234242428         1.045780932         1.975506012
C             0.373663187        -0.059351727         2.520814893
