      34
SCF Done            -213.80628861
C            -0.632570504         1.354350544         2.311574182
C            -1.531149733         0.143028006         2.214312133
C            -0.926965327        -1.193926964         2.192568188
C             0.866764704         1.219841989         2.193469935
C             1.470967554        -0.117064303         2.226941576
C             0.571420586        -1.327973023         2.323597827
C             2.603776395        -0.458063149         1.276041692
C             3.012006763         0.507048822         0.202684577
C            -3.056589296        -0.490290665         0.180824613
C            -2.354624332        -1.804006647         0.100348484
C            -2.656391464         0.479369514         1.252567667
C            -1.392874816        -2.209833571         1.168302966
C             1.048586986        -2.340654823         1.292383531
C            -0.136042787        -2.760286886         0.487274758
C            -2.278357448         1.598364491        -0.899087285
C            -2.304533526         1.811215849         0.589657015
C            -1.627359171        -1.890556330        -1.236375402
C            -1.865724697        -0.601059140        -1.971861212
C            -2.879896522         0.216090234        -1.168448726
C            -1.102008112         2.360947033         1.270840770
C            -0.937015986         1.640001210        -1.593253573
C             0.182773040         2.377130126        -0.985259010
C             0.087579832         2.776877486         0.473042420
C            -0.688266379         0.289486024        -2.222546621
C             2.310199541         1.821123068         0.110104634
C             1.339370470         2.230894175         1.167336816
C             1.833126169         0.609258086        -1.953935088
C             1.592062621         1.902078705        -1.232181466
C            -0.221540939        -2.364548148        -0.972268823
C             0.899459105        -1.627021342        -1.569462722
C             0.656400000        -0.278700000        -2.196400000
C             2.256633067        -1.793825631         0.617749498
C             2.239003254        -1.587402617        -0.871409914
C             2.844176626        -0.205936968        -1.144279758
