      52
SCF Done            -344.43476122
C            -0.241105013         0.646372495         3.356330005
C             0.935405344        -0.266070849         3.433787455
C            -1.537388102         0.100078452         2.983106641
C            -2.046808921         2.170686639         1.588444768
C            -2.497321020         0.918114488         2.172874589
C            -1.657282067        -1.337813800         2.559392672
C            -0.438100000        -2.121200000         2.284500000
C             0.857380021        -1.619151910         2.779823355
C            -0.448161047        -3.085556090         1.168457221
C            -2.834947205        -1.433947244         1.627497769
C            -2.669191300        -2.126118509         0.317476678
C            -1.517749791        -2.992986833         0.115442119
C            -3.321445582        -0.012478112         1.347268947
C             0.838237051        -3.437218156         0.471258389
C             2.060595128        -2.631792449         0.753880052
C             2.089769856        -1.779298988         1.933070087
C             2.580041868        -2.103353769        -0.547977558
C             3.291214504        -0.835229384        -0.588503052
C             3.136181541         0.043737773        -1.780899397
C             3.319272065         0.034803957         0.633314708
C             2.820817850        -0.470966980         1.901853002
C             1.884506903         2.122693711        -1.988046060
C             3.030913429         1.484812328        -1.282397533
C             0.997304007         3.003127382        -1.245056448
C            -0.115025486         1.161247288        -3.263546508
C             1.301020428         1.119133763        -2.935881682
C             1.610272629        -2.467245006        -1.644816346
C             1.199775966        -1.447271135        -2.635193761
C             1.995526259        -0.203371471        -2.735559796
C             2.136559957         0.467828641         2.838475199
C             3.046487995         1.460055315         0.224635569
C             1.168431778         3.175113428         0.242433949
C             2.076584125         2.276589483         0.989760488
C             1.653288947         1.800512040         2.325379485
C            -0.190937575         3.511679182         0.801340984
C            -0.711166487         2.740803110         1.964760546
C             0.212939844         1.939621622         2.751960158
C            -1.210977711         3.385817699        -0.330012002
C            -2.213790507        -0.002642760        -2.848579014
C            -2.279127169         1.324493399        -2.135853665
C            -1.021562359         2.073769001        -2.494472019
C            -0.463799220         3.052272968        -1.574821945
C            -0.215650710        -1.415059547        -3.069226527
C            -0.840575713        -0.116189615        -3.510142591
C            -3.070119139        -1.172421861        -0.765864251
C            -2.447419421        -1.255471240        -2.077691171
C            -1.263539012        -2.155012668        -2.277290093
C            -0.869467150        -3.086404151        -1.232939671
C             0.579554557        -3.382339795        -1.034014723
C            -2.313614164         2.469342865         0.135039991
C            -2.817501836         1.402110419        -0.759370693
C            -3.367200276         0.171583817        -0.148352178
